#-----------Setup----------------------
units metal            #Energy = eV , Distance= Angstroms
dimension 3
boundary p p p         #Periodic boundary conditions
atom_style atomic

# ---------- Read Data ---------------------
# Read config files (get the structure from https://www.materialsproject.org/)
read_data Al_mp-10x10x10.data
  orthogonal box = (-16.1557 -16.1557 -16.1557) to (24.2336 24.2336 24.2336)
  reading atoms ...
  4000 atoms

pair_style eam/alloy
pair_coeff * *  LAMMPS_POTENTIALS/AlCu.eam.alloy Al
Reading potential file LAMMPS_POTENTIALS/AlCu.eam.alloy with DATE: 2008-10-01
neighbor 2.0 bin
neigh_modify delay 10 check yes

#--------- NPT-------
reset_timestep 0
timestep 0.001

thermo 1000
thermo_style custom step pe ke etotal enthalpy temp vol press
velocity all create 350 1518772
fix 1 all npt temp 350 350 0.5 iso 1 1 5
dump 2 all atom 2000 dump.nptHW3_NPT350
run 60000
  1 neighbor list requests
  update every 1 steps, delay 10 steps, check yes
Step PotEng KinEng TotEng Enthalpy Temp Volume Press
0   -13203.173    180.91896   -13022.254   -12813.253          350    65886.855    5082.2896
Averages over the last 31 of 61 rows, steps 30000 to 60000:
PotEng KinEng TotEng Enthalpy Temp Volume Press
-13079.5 181.025 -12898.4 -12899.3 350.206 68532.7 -18.7382
Loop time of 6569.4 on 28 procs for 60000 steps with 4000 atoms

unfix 1
undump 2

######################################
# SIMULATION DONE
print "All done"
All done
